/*--------------------------------*- C++ -*----------------------------------*\
| =========                 |                                                 |
| \\      /  F ield         | OpenFOAM: The Open Source CFD Toolbox           |
|  \\    /   O peration     | Version:  2412                                  |
|   \\  /    A nd           | Website:  www.openfoam.com                      |
|    \\/     M anipulation  |                                                 |
\*---------------------------------------------------------------------------*/
FoamFile
{
    version     2.0;
    format      ascii;
    arch        "LSB;label=32;scalar=64";
    class       dictionary;
    location    "0";
    object      Phi.0.system;
}
// * * * * * * * * * * * * * * * * * * * * * * * * * * * * * * * * * * * * * //

source          2000 ( 0 0 0 0 0 0 0 0 0 0 0 0 0 0 0 0 0 0 0 0 0 0 0 0 0 0 0 0 0 0 0 0 0 0 0 0 0 0 0 0 0 0 0 0 0 0 0 0 0 0 0 0 0 0 0 0 0 0 0 0 0 0 0 0 0 0 0 0 0 0 0 0 0 0 0 0 0 0 0 0 0 0 0 0 0 0 0 0 0 0 0 0 0 0 0 0 0 0 0 0 0 0 0 0 0 0 0 0 0 0 0 0 0 0 0 0 0 0 0 0 0 0 0 0 0 0 0 0 0 0 0 0 0 0 0 0 0 0 0 0 0 0 0 0 0 0 0 0 0 0 0 0 0 0 0 0 0 0 0 0 0 0 0 0 0 0 0 0 0 0 0 0 0 0 0 0 0 0 0 0 0 0 0 0 0 0 0 0 0 0 0 0 0 0 0 0 0 0 0 0 0 0 0 0 0 0 0 0 0 0 0 0 0 0 0 0 0 0 0 0 0 0 0 0 0 0 0 0 0 0 0 0 0 0 0 0 0 0 0 0 0 0 0 0 0 0 0 0 0 0 0 0 0 0 0 0 0 0 0 0 0 0 0 0 0 0 0 0 0 0 0 0 0 0 0 0 0 0 0 0 0 0 0 0 0 0 0 0 0 0 0 0 0 0 0 0 0 0 0 0 0 0 0 0 0 0 0 0 0 0 0 0 0 0 0 0 0 0 0 0 0 0 0 0 0 0 0 0 0 0 0 0 0 0 0 0 0 0 0 0 0 0 0 0 0 0 0 0 0 0 0 0 0 0 0 0 0 0 0 0 0 0 0 0 0 0 0 0 0 0 0 0 0 0 0 0 0 0 0 0 0 0 0 0 0 0 0 0 0 0 0 0 0 0 0 0 0 0 0 0 0 0 0 0 0 0 0 0 0 0 0 0 0 0 0 0 0 0 0 0 0 0 0 0 0 0 0 0 0 0 0 0 0 0 0 0 0 0 0 0 0 0 0 0 0 0 0 0 0 0 0 0 0 0 0 0 0 0 0 0 0 0 0 0 0 0 0 0 0 0 0 0 0 0 0 0 0 0 0 0 0 0 0 0 0 0 0 0 0 0 0 0 0 0 0 0 0 0 0 0 0 0 0 0 0 0 0 0 0 0 0 0 0 0 0 0 0 0 0 0 0 0 0 0 0 0 0 0 0 0 0 0 0 0 0 0 0 0 0 0 0 0 0 0 0 0 0 0 0 0 0 0 0 0 0 0 0 0 0 0 0 0 0 0 0 0 0 0 0 0 0 0 0 0 0 0 0 0 0 0 0 0 0 0 0 0 0 0 0 0 0 0 0 0 0 0 0 0 0 0 0 0 0 0 0 0 0 0 0 0 0 0 0 0 0 0 0 0 0 0 0 0 0 0 0 0 0 0 0 0 0 0 0 0 0 0 0 0 0 0 0 0 0 0 0 0 0 0 0 0 0 0 0 0 0 0 0 0 0 0 0 0 0 0 0 0 0 0 0 0 0 0 0 0 0 0 0 0 0 0 0 0 0 0 0 0 0 0 0 0 0 0 0 0 0 0 0 0 0 0 0 0 0 0 0 0 0 0 0 0 0 0 0 0 0 0 0 0 0 0 0 0 0 0 0 0 0 0 0 0 0 0 0 0 0 0 0 0 0 0 0 0 0 0 0 0 0 0 0 0 0 0 0 0 0 0 0 0 0 0 0 0 0 0 0 0 0 0 0 0 0 0 0 0 0 0 0 0 0 0 0 0 0 0 0 0 0 0 0 0 0 0 0 0 0 0 0 0 0 0 0 0 0 0 0 0 0 0 0 0 0 0 0 0 0 0 0 0 0 0 0 0 0 0 0 0 0 0 0 0 0 0 0 0 0 0 0 0 0 0 0 0 0 0 0 0 0 0 0 0 0 0 0 0 0 0 0 0 0 0 0 0 0 0 0 0 0 0 0 0 0 0 0 0 0 0 0 0 0 0 0 0 0 0 0 0 0 0 0 0 0 0 0 0 0 0 0 0 0 0 0 0 0 0 0 0 0 0 0 0 0 0 0 0 0 0 0 0 0 0 0 0 0 0 0 0 0 0 0 0 0 0 0 0 0 0 0 0 0 0 0 0 0 0 0 0 0 0 0 0 0 0 0 0 0 0 0 0 0 0 0 0 0 0 0 0 0 0 0 0 0 0 0 0 0 0 0 0 0 0 0 0 0 0 0 0 0 0 0 0 0 0 0 0 0 0 0 0 0 0 0 0 0 0 0 0 0 0 0 0 0 0 0 0 0 0 0 0 0 0 0 0 0 0 0 0 0 0 0 0 0 0 0 0 0 0 0 0 0 0 0 0 0 0 0 0 0 0 0 0 0 0 0 0 0 0 0 0 0 0 0 0 0 0 0 0 0 0 0 0 0 0 0 0 0 0 0 0 0 0 0 0 0 0 0 0 0 0 0 0 0 0 0 0 0 0 0 0 0 0 0 0 0 0 0 0 0 0 0 0 0 0 0 0 0 0 0 0 0 0 0 0 0 0 0 0 0 0 0 0 0 0 0 0 0 0 0 0 0 0 0 0 0 0 0 0 0 0 0 0 0 0 0 0 0 0 0 0 0 0 0 0 0 0 0 0 0 0 0 0 0 0 0 0 0 0 0 0 0 0 0 0 0 0 0 0 0 0 0 0 0 0 0 0 0 0 0 0 0 0 -0.0707107 0 0 0 0 0 0 0 0 0 0 0 0 0 0 0 0 0 0 0 -0.0707107 0 0 0 0 0 0 0 0 0 0 0 0 0 0 0 0 0 0 0 -0.0707107 0 0 0 0 0 0 0 0 0 0 0 0 0 0 0 0 0 0 0 -0.0707107 0 0 0 0 0 0 0 0 0 0 0 0 0 0 0 0 0 0 0 -0.0707107 0 0 0 0 0 0 0 0 0 0 0 0 0 0 0 0 0 0 0 -0.0707107 0 0 0 0 0 0 0 0 0 0 0 0 0 0 0 0 0 0 0 -0.0707107 0 0 0 0 0 0 0 0 0 0 0 0 0 0 0 0 0 0 0 -0.0707107 0 0 0 0 0 0 0 0 0 0 0 0 0 0 0 0 0 0 0 -0.0707107 0 0 0 0 0 0 0 0 0 0 0 0 0 0 0 0 0 0 0 -0.0707107 0 0 0 0 0 0 0 0 0 0 0 0 0 0 0 0 0 0 0 -0.0646446 0 0 0 0 0 0 0 0 0 0 0 0 0 0 0 0 0 0 0 -0.0646446 0 0 0 0 0 0 0 0 0 0 0 0 0 0 0 0 0 0 0 -0.0646446 0 0 0 0 0 0 0 0 0 0 0 0 0 0 0 0 0 0 0 -0.0646447 0 0 0 0 0 0 0 0 0 0 0 0 0 0 0 0 0 0 0 -0.0646446 0 0 0 0 0 0 0 0 0 0 0 0 0 0 0 0 0 0 0 -0.0646446 0 0 0 0 0 0 0 0 0 0 0 0 0 0 0 0 0 0 0 -0.0646446 0 0 0 0 0 0 0 0 0 0 0 0 0 0 0 0 0 0 0 -0.0646446 0 0 0 0 0 0 0 0 0 0 0 0 0 0 0 0 0 0 0 -0.0646447 0 0 0 0 0 0 0 0 0 0 0 0 0 0 0 0 0 0 0 -0.0646446 0 0 0 0 0 0 0 0 0 0 0 0 0 0 0 0 0 0 0 -0.0646446 0 0 0 0 0 0 0 0 0 0 0 0 0 0 0 0 0 0 0 -0.0646446 0 0 0 0 0 0 0 0 0 0 0 0 0 0 0 0 0 0 0 -0.0646446 0 0 0 0 0 0 0 0 0 0 0 0 0 0 0 0 0 0 0 -0.0646446 0 0 0 0 0 0 0 0 0 0 0 0 0 0 0 0 0 0 0 -0.0646446 0 0 0 0 0 0 0 0 0 0 0 0 0 0 0 0 0 0 0 -0.0646446 0 0 0 0 0 0 0 0 0 0 0 0 0 0 0 0 0 0 0 -0.0646447 0 0 0 0 0 0 0 0 0 0 0 0 0 0 0 0 0 0 0 -0.0646446 0 0 0 0 0 0 0 0 0 0 0 0 0 0 0 0 0 0 0 -0.0646446 0 0 0 0 0 0 0 0 0 0 0 0 0 0 0 0 0 0 0 -0.0646446 0 0 0 0 0 0 0 0 0 0 0 0 0 0 0 0 0 0 0 0 0 0 0 0 0 0 0 0 0 0 0 0 0 0 0 0 0 0 0 0 0 0 0 0 0 0 0 0 0 0 0 0 0 0 0 0 0 0 0 0 0 0 0 0 0 0 0 0 0 0 0 0 0 0 0 0 0 0 0 0 0 0 0 0 0 0 0 0 0 0 0 0 0 0 0 0 0 0 0 0 0 0 0 0 0 0 0 0 0 0 0 0 0 0 0 0 0 0 0 0 0 0 0 0 0 0 0 0 0 0 0 0 0 0 0 0 0 0 0 0 0 0 0 0 0 0 0 0 0 0 0 0 0 0 0 0 0 0 0 0 0 0 0 0 0 0 0 0 0 0 0 0 0 0 0 0 0 0 0 0 0 0 0 0 0 0 0 0 0 0 0 0 0 0 0 0 0 0 0 0 0 0 0 0 0 0 0 0 0 0 0 0 0 0 0 0 0 0 0 );

matrix
{
    diag            2000 ( -3.29086 -4.0237 -4.00375 -4.01 -4.03703 -4.08084 -4.13838 -4.20729 -4.28573 -4.43778 -3.29086 -4.0237 -4.00375 -4.01 -4.03703 -4.08084 -4.13838 -4.20729 -4.28573 -4.42294 -3.29086 -4.0237 -4.00375 -4.01 -4.03703 -4.08084 -4.13838 -4.20729 -4.28573 -4.41101 -3.29086 -4.0237 -4.00375 -4.01 -4.03703 -4.08084 -4.13838 -4.20729 -4.28573 -4.40152 -3.29086 -4.0237 -4.00375 -4.01 -4.03703 -4.08084 -4.13838 -4.20729 -4.28573 -4.39407 -3.29086 -4.0237 -4.00375 -4.01 -4.03703 -4.08084 -4.13838 -4.20729 -4.28573 -4.38835 -3.29086 -4.0237 -4.00375 -4.01 -4.03703 -4.08084 -4.13838 -4.20729 -4.28573 -4.38409 -3.29086 -4.0237 -4.00375 -4.01 -4.03703 -4.08084 -4.13838 -4.20729 -4.28573 -4.38108 -3.29086 -4.0237 -4.00375 -4.01 -4.03703 -4.08084 -4.13838 -4.20729 -4.28573 -4.37915 -3.29086 -4.0237 -4.00375 -4.01 -4.03703 -4.08084 -4.13838 -4.20729 -4.28573 -4.37821 -2.07792 -2.91609 -2.98465 -3.06632 -3.15838 -3.25884 -3.36616 -3.47917 -3.59696 -3.72474 -3.29086 -4.0237 -4.00375 -4.01 -4.03703 -4.08084 -4.13838 -4.20729 -4.28573 -4.37915 -3.29086 -4.0237 -4.00375 -4.01 -4.03703 -4.08084 -4.13838 -4.20729 -4.28573 -4.38108 -3.29086 -4.0237 -4.00375 -4.01 -4.03703 -4.08084 -4.13838 -4.20729 -4.28573 -4.38409 -3.29086 -4.0237 -4.00375 -4.01 -4.03703 -4.08084 -4.13838 -4.20729 -4.28573 -4.38835 -3.29086 -4.0237 -4.00375 -4.01 -4.03703 -4.08084 -4.13838 -4.20729 -4.28573 -4.39407 -3.29086 -4.0237 -4.00375 -4.01 -4.03703 -4.08084 -4.13838 -4.20729 -4.28573 -4.40152 -3.29086 -4.0237 -4.00375 -4.01 -4.03703 -4.08084 -4.13838 -4.20729 -4.28573 -4.41101 -3.29086 -4.0237 -4.00375 -4.01 -4.03703 -4.08084 -4.13838 -4.20729 -4.28573 -4.42294 -3.29086 -4.0237 -4.00375 -4.01 -4.03703 -4.08084 -4.13838 -4.20729 -4.28573 -4.43778 -3.78224 -3.76091 -3.74811 -3.73536 -3.72267 -3.71002 -3.69743 -3.68489 -3.67241 -3.65998 -3.64761 -3.63529 -3.62304 -3.61084 -3.5987 -3.58662 -3.57461 -3.56265 -3.55076 -4.94841 -4.4397 -4.41955 -4.4071 -4.3949 -4.38294 -4.37122 -4.35976 -4.34855 -4.33759 -4.3269 -4.31648 -4.30632 -4.29644 -4.28683 -4.2775 -4.26846 -4.25971 -4.25125 -4.2431 -5.63628 -4.47802 -4.45387 -4.43568 -4.41806 -4.40101 -4.38453 -4.36864 -4.35335 -4.33866 -4.32457 -4.3111 -4.29825 -4.28603 -4.27446 -4.26352 -4.25325 -4.24363 -4.23469 -4.22642 -5.60338 -4.53678 -4.50666 -4.47975 -4.45393 -4.42919 -4.40555 -4.38302 -4.36161 -4.34133 -4.32219 -4.30419 -4.28736 -4.2717 -4.25723 -4.24394 -4.23186 -4.22099 -4.21135 -4.20294 -5.5564 -4.61759 -4.57953 -4.54079 -4.50387 -4.46877 -4.43552 -4.40411 -4.37455 -4.34686 -4.32104 -4.29709 -4.27504 -4.25489 -4.23664 -4.22031 -4.2059 -4.19343 -4.1829 -4.17432 -5.49791 -4.72266 -4.67469 -4.62079 -4.56973 -4.5215 -4.4761 -4.43353 -4.39378 -4.35685 -4.32275 -4.29147 -4.26301 -4.23737 -4.21454 -4.19452 -4.17732 -4.16293 -4.15134 -4.14256 -5.43099 -4.85498 -4.79509 -4.72241 -4.65391 -4.58957 -4.52936 -4.47326 -4.42123 -4.37324 -4.32927 -4.28929 -4.25328 -4.22119 -4.19302 -4.16873 -4.14829 -4.13168 -4.11888 -4.10985 -5.35893 -5.01843 -4.94451 -4.84894 -4.75935 -4.67566 -4.59779 -4.52564 -4.45914 -4.39821 -4.34276 -4.29272 -4.24802 -4.20858 -4.17433 -4.14519 -4.1211 -4.10198 -4.08777 -4.07839 -5.28506 -5.21798 -5.12774 -5.00455 -4.88971 -4.78302 -4.68431 -4.59338 -4.51007 -4.43419 -4.36559 -4.3041 -4.24957 -4.20184 -4.16076 -4.1262 -4.09801 -4.07606 -4.06021 -4.05034 -5.21254 -5.36158 -5.26232 -5.11542 -4.97967 -4.8547 -4.74015 -4.63568 -4.54099 -4.45575 -4.37968 -4.31248 -4.2539 -4.20367 -4.16153 -4.12726 -4.10061 -4.08137 -4.06933 -4.06427 -5.18621 -4.11721 -4.05298 -4.04741 -4.0419 -4.03645 -4.03105 -4.02571 -4.02043 -4.0152 -4.01002 -4.0049 -3.99983 -3.9948 -3.98983 -3.98491 -3.98004 -3.97521 -3.97044 -3.9657 -4.96102 -4.05298 -4 -4 -4 -4 -4 -4 -4 -4 -4 -4 -4 -4 -4 -4 -4 -4 -4 -4 -5 -4.04741 -4 -4 -4 -4 -4 -4 -4 -4 -4 -4 -4 -4 -4 -4 -4 -4 -4 -4 -5 -4.0419 -4 -4 -4 -4 -4 -4 -4 -4 -4 -4 -4 -4 -4 -4 -4 -4 -4 -4 -5 -4.03645 -4 -4 -4 -4 -4 -4 -4 -4 -4 -4 -4 -4 -4 -4 -4 -4 -4 -4 -5 -4.03105 -4 -4 -4 -4 -4 -4 -4 -4 -4 -4 -4 -4 -4 -4 -4 -4 -4 -4 -5 -4.02571 -4 -4 -4 -4 -4 -4 -4 -4 -4 -4 -4 -4 -4 -4 -4 -4 -4 -4 -5 -4.02043 -4 -4 -4 -4 -4 -4 -4 -4 -4 -4 -4 -4 -4 -4 -4 -4 -4 -4 -5 -4.0152 -4 -4 -4 -4 -4 -4 -4 -4 -4 -4 -4 -4 -4 -4 -4 -4 -4 -4 -5 -4.01002 -4 -4 -4 -4 -4 -4 -4 -4 -4 -4 -4 -4 -4 -4 -4 -4 -4 -4 -5 -4.0049 -4 -4 -4 -4 -4 -4 -4 -4 -4 -4 -4 -4 -4 -4 -4 -4 -4 -4 -5 -3.99983 -4 -4 -4 -4 -4 -4 -4 -4 -4 -4 -4 -4 -4 -4 -4 -4 -4 -4 -5 -3.9948 -4 -4 -4 -4 -4 -4 -4 -4 -4 -4 -4 -4 -4 -4 -4 -4 -4 -4 -5 -3.98983 -4 -4 -4 -4 -4 -4 -4 -4 -4 -4 -4 -4 -4 -4 -4 -4 -4 -4 -5 -3.98491 -4 -4 -4 -4 -4 -4 -4 -4 -4 -4 -4 -4 -4 -4 -4 -4 -4 -4 -5 -3.98004 -4 -4 -4 -4 -4 -4 -4 -4 -4 -4 -4 -4 -4 -4 -4 -4 -4 -4 -5 -3.97521 -4 -4 -4 -4 -4 -4 -4 -4 -4 -4 -4 -4 -4 -4 -4 -4 -4 -4 -5 -3.97044 -4 -4 -4 -4 -4 -4 -4 -4 -4 -4 -4 -4 -4 -4 -4 -4 -4 -4 -5 -3.9657 -4 -4 -4 -4 -4 -4 -4 -4 -4 -4 -4 -4 -4 -4 -4 -4 -4 -4 -5 -2.96102 -3 -3 -3 -3 -3 -3 -3 -3 -3 -3 -3 -3 -3 -3 -3 -3 -3 -3 -4 -4.42079 -4.4397 -4.47802 -4.53678 -4.61759 -4.72266 -4.85498 -5.01843 -5.21798 -5.36158 -4.40264 -4.41955 -4.45387 -4.50666 -4.57953 -4.67469 -4.79509 -4.94451 -5.12774 -5.26232 -4.39305 -4.4071 -4.43568 -4.47975 -4.54079 -4.62079 -4.72241 -4.84894 -5.00455 -5.11542 -4.38354 -4.3949 -4.41806 -4.45393 -4.50387 -4.56973 -4.65391 -4.75935 -4.88971 -4.97967 -4.37412 -4.38294 -4.40101 -4.42919 -4.46877 -4.5215 -4.58957 -4.67566 -4.78302 -4.8547 -4.36478 -4.37122 -4.38453 -4.40555 -4.43552 -4.4761 -4.52936 -4.59779 -4.68431 -4.74015 -4.35552 -4.35976 -4.36864 -4.38302 -4.40411 -4.43353 -4.47326 -4.52564 -4.59338 -4.63568 -4.34636 -4.34855 -4.35335 -4.36161 -4.37455 -4.39378 -4.42123 -4.45914 -4.51007 -4.54099 -4.33728 -4.33759 -4.33866 -4.34133 -4.34686 -4.35685 -4.37324 -4.39821 -4.43419 -4.45575 -4.3283 -4.3269 -4.32457 -4.32219 -4.32104 -4.32275 -4.32927 -4.34276 -4.36559 -4.37968 -4.3194 -4.31648 -4.3111 -4.30419 -4.29709 -4.29147 -4.28929 -4.29272 -4.3041 -4.31248 -4.3106 -4.30632 -4.29825 -4.28736 -4.27504 -4.26301 -4.25328 -4.24802 -4.24957 -4.2539 -4.3019 -4.29644 -4.28603 -4.2717 -4.25489 -4.23737 -4.22119 -4.20858 -4.20184 -4.20367 -4.29329 -4.28683 -4.27446 -4.25723 -4.23664 -4.21454 -4.19302 -4.17433 -4.16076 -4.16153 -4.28478 -4.2775 -4.26352 -4.24394 -4.22031 -4.19452 -4.16873 -4.14519 -4.1262 -4.12726 -4.27637 -4.26846 -4.25325 -4.23186 -4.2059 -4.17732 -4.14829 -4.1211 -4.09801 -4.10061 -4.26806 -4.25971 -4.24363 -4.22099 -4.19343 -4.16293 -4.13168 -4.10198 -4.07606 -4.08137 -4.25985 -4.25125 -4.23469 -4.21135 -4.1829 -4.15134 -4.11888 -4.08777 -4.06021 -4.06933 -4.25175 -4.2431 -4.22642 -4.20294 -4.17432 -4.14256 -4.10985 -4.07839 -4.05034 -4.06427 -2.83171 -2.83183 -2.83235 -2.83377 -2.83679 -2.84228 -2.85115 -2.86435 -2.88279 -2.9493 -4.43778 -4.28573 -4.20729 -4.13838 -4.08084 -4.03703 -4.01 -4.00375 -4.0237 -3.29086 -4.42294 -4.28573 -4.20729 -4.13838 -4.08084 -4.03703 -4.01 -4.00375 -4.0237 -3.29086 -4.41101 -4.28573 -4.20729 -4.13838 -4.08084 -4.03703 -4.01 -4.00375 -4.0237 -3.29086 -4.40152 -4.28573 -4.20729 -4.13838 -4.08084 -4.03703 -4.01 -4.00375 -4.0237 -3.29086 -4.39407 -4.28573 -4.20729 -4.13838 -4.08084 -4.03703 -4.01 -4.00375 -4.0237 -3.29086 -4.38835 -4.28573 -4.20729 -4.13838 -4.08084 -4.03703 -4.01 -4.00375 -4.0237 -3.29086 -4.38409 -4.28573 -4.20729 -4.13838 -4.08084 -4.03703 -4.01 -4.00375 -4.0237 -3.29086 -4.38108 -4.28573 -4.20729 -4.13838 -4.08084 -4.03703 -4.01 -4.00375 -4.0237 -3.29086 -4.37915 -4.28573 -4.20729 -4.13838 -4.08084 -4.03703 -4.01 -4.00375 -4.0237 -3.29086 -4.37821 -4.28573 -4.20729 -4.13838 -4.08084 -4.03703 -4.01 -4.00375 -4.0237 -3.29086 -3.72474 -3.59696 -3.47917 -3.36616 -3.25884 -3.15838 -3.06632 -2.98465 -2.91609 -2.07792 -4.37915 -4.28573 -4.20729 -4.13838 -4.08084 -4.03703 -4.01 -4.00375 -4.0237 -3.29086 -4.38108 -4.28573 -4.20729 -4.13838 -4.08084 -4.03703 -4.01 -4.00375 -4.0237 -3.29086 -4.38409 -4.28573 -4.20729 -4.13838 -4.08084 -4.03703 -4.01 -4.00375 -4.0237 -3.29086 -4.38835 -4.28573 -4.20729 -4.13838 -4.08084 -4.03703 -4.01 -4.00375 -4.0237 -3.29086 -4.39407 -4.28573 -4.20729 -4.13838 -4.08084 -4.03703 -4.01 -4.00375 -4.0237 -3.29086 -4.40152 -4.28573 -4.20729 -4.13838 -4.08084 -4.03703 -4.01 -4.00375 -4.0237 -3.29086 -4.41101 -4.28573 -4.20729 -4.13838 -4.08084 -4.03703 -4.01 -4.00375 -4.0237 -3.29086 -4.42294 -4.28573 -4.20729 -4.13838 -4.08084 -4.03703 -4.01 -4.00375 -4.0237 -3.29086 -4.43778 -4.28573 -4.20729 -4.13838 -4.08084 -4.03703 -4.01 -4.00375 -4.0237 -3.29086 -2.1269 -3.55076 -3.56265 -3.57461 -3.58662 -3.5987 -3.61084 -3.62304 -3.63529 -3.64761 -3.65998 -3.67241 -3.68489 -3.69743 -3.71002 -3.72267 -3.73536 -3.74811 -3.76091 -3.78224 -2.83183 -4.2431 -4.25125 -4.25971 -4.26846 -4.2775 -4.28683 -4.29644 -4.30632 -4.31648 -4.3269 -4.33759 -4.34855 -4.35976 -4.37122 -4.38294 -4.3949 -4.4071 -4.41955 -4.4397 -2.83235 -4.22642 -4.23469 -4.24363 -4.25325 -4.26352 -4.27446 -4.28603 -4.29825 -4.3111 -4.32457 -4.33866 -4.35335 -4.36864 -4.38453 -4.40101 -4.41806 -4.43568 -4.45387 -4.47802 -2.83377 -4.20294 -4.21135 -4.22099 -4.23186 -4.24394 -4.25723 -4.2717 -4.28736 -4.30419 -4.32219 -4.34133 -4.36161 -4.38302 -4.40555 -4.42919 -4.45393 -4.47975 -4.50666 -4.53678 -2.83679 -4.17432 -4.1829 -4.19343 -4.2059 -4.22031 -4.23664 -4.25489 -4.27504 -4.29709 -4.32104 -4.34686 -4.37455 -4.40411 -4.43552 -4.46877 -4.50387 -4.54079 -4.57953 -4.61759 -2.84228 -4.14256 -4.15134 -4.16293 -4.17732 -4.19452 -4.21454 -4.23737 -4.26301 -4.29147 -4.32275 -4.35685 -4.39378 -4.43353 -4.4761 -4.5215 -4.56973 -4.62079 -4.67469 -4.72266 -2.85115 -4.10985 -4.11888 -4.13168 -4.14829 -4.16873 -4.19302 -4.22119 -4.25328 -4.28929 -4.32927 -4.37324 -4.42123 -4.47326 -4.52936 -4.58957 -4.65391 -4.72241 -4.79509 -4.85498 -2.86435 -4.07839 -4.08777 -4.10198 -4.1211 -4.14519 -4.17433 -4.20858 -4.24802 -4.29272 -4.34276 -4.39821 -4.45914 -4.52564 -4.59779 -4.67566 -4.75935 -4.84894 -4.94451 -5.01843 -2.88279 -4.05034 -4.06021 -4.07606 -4.09801 -4.1262 -4.16076 -4.20184 -4.24957 -4.3041 -4.36559 -4.43419 -4.51007 -4.59338 -4.68431 -4.78302 -4.88971 -5.00455 -5.12774 -5.21798 -2.9493 -4.06427 -4.06933 -4.08137 -4.10061 -4.12726 -4.16153 -4.20367 -4.2539 -4.31248 -4.37968 -4.45575 -4.54099 -4.63568 -4.74015 -4.8547 -4.97967 -5.11542 -5.26232 -5.36158 -2.96102 -3.9657 -3.97044 -3.97521 -3.98004 -3.98491 -3.98983 -3.9948 -3.99983 -4.0049 -4.01002 -4.0152 -4.02043 -4.02571 -4.03105 -4.03645 -4.0419 -4.04741 -4.05298 -4.11721 -3 -4 -4 -4 -4 -4 -4 -4 -4 -4 -4 -4 -4 -4 -4 -4 -4 -4 -4 -4.05298 -3 -4 -4 -4 -4 -4 -4 -4 -4 -4 -4 -4 -4 -4 -4 -4 -4 -4 -4 -4.04741 -3 -4 -4 -4 -4 -4 -4 -4 -4 -4 -4 -4 -4 -4 -4 -4 -4 -4 -4 -4.0419 -3 -4 -4 -4 -4 -4 -4 -4 -4 -4 -4 -4 -4 -4 -4 -4 -4 -4 -4 -4.03645 -3 -4 -4 -4 -4 -4 -4 -4 -4 -4 -4 -4 -4 -4 -4 -4 -4 -4 -4 -4.03105 -3 -4 -4 -4 -4 -4 -4 -4 -4 -4 -4 -4 -4 -4 -4 -4 -4 -4 -4 -4.02571 -3 -4 -4 -4 -4 -4 -4 -4 -4 -4 -4 -4 -4 -4 -4 -4 -4 -4 -4 -4.02043 -3 -4 -4 -4 -4 -4 -4 -4 -4 -4 -4 -4 -4 -4 -4 -4 -4 -4 -4 -4.0152 -3 -4 -4 -4 -4 -4 -4 -4 -4 -4 -4 -4 -4 -4 -4 -4 -4 -4 -4 -4.01002 -3 -4 -4 -4 -4 -4 -4 -4 -4 -4 -4 -4 -4 -4 -4 -4 -4 -4 -4 -4.0049 -3 -4 -4 -4 -4 -4 -4 -4 -4 -4 -4 -4 -4 -4 -4 -4 -4 -4 -4 -3.99983 -3 -4 -4 -4 -4 -4 -4 -4 -4 -4 -4 -4 -4 -4 -4 -4 -4 -4 -4 -3.9948 -3 -4 -4 -4 -4 -4 -4 -4 -4 -4 -4 -4 -4 -4 -4 -4 -4 -4 -4 -3.98983 -3 -4 -4 -4 -4 -4 -4 -4 -4 -4 -4 -4 -4 -4 -4 -4 -4 -4 -4 -3.98491 -3 -4 -4 -4 -4 -4 -4 -4 -4 -4 -4 -4 -4 -4 -4 -4 -4 -4 -4 -3.98004 -3 -4 -4 -4 -4 -4 -4 -4 -4 -4 -4 -4 -4 -4 -4 -4 -4 -4 -4 -3.97521 -3 -4 -4 -4 -4 -4 -4 -4 -4 -4 -4 -4 -4 -4 -4 -4 -4 -4 -4 -3.97044 -3 -4 -4 -4 -4 -4 -4 -4 -4 -4 -4 -4 -4 -4 -4 -4 -4 -4 -4 -3.9657 -2 -3 -3 -3 -3 -3 -3 -3 -3 -3 -3 -3 -3 -3 -3 -3 -3 -3 -3 -2.96102 -5.36158 -5.21798 -5.01843 -4.85498 -4.72266 -4.61759 -4.53678 -4.47802 -4.4397 -4.42079 -5.26232 -5.12774 -4.94451 -4.79509 -4.67469 -4.57953 -4.50666 -4.45387 -4.41955 -4.40264 -5.11542 -5.00455 -4.84894 -4.72241 -4.62079 -4.54079 -4.47975 -4.43568 -4.4071 -4.39305 -4.97967 -4.88971 -4.75935 -4.65391 -4.56973 -4.50387 -4.45393 -4.41806 -4.3949 -4.38354 -4.8547 -4.78302 -4.67566 -4.58957 -4.5215 -4.46877 -4.42919 -4.40101 -4.38294 -4.37412 -4.74015 -4.68431 -4.59779 -4.52936 -4.4761 -4.43552 -4.40555 -4.38453 -4.37122 -4.36478 -4.63568 -4.59338 -4.52564 -4.47326 -4.43353 -4.40411 -4.38302 -4.36864 -4.35976 -4.35552 -4.54099 -4.51007 -4.45914 -4.42123 -4.39378 -4.37455 -4.36161 -4.35335 -4.34855 -4.34636 -4.45575 -4.43419 -4.39821 -4.37324 -4.35685 -4.34686 -4.34133 -4.33866 -4.33759 -4.33728 -4.37968 -4.36559 -4.34276 -4.32927 -4.32275 -4.32104 -4.32219 -4.32457 -4.3269 -4.3283 -4.31248 -4.3041 -4.29272 -4.28929 -4.29147 -4.29709 -4.30419 -4.3111 -4.31648 -4.3194 -4.2539 -4.24957 -4.24802 -4.25328 -4.26301 -4.27504 -4.28736 -4.29825 -4.30632 -4.3106 -4.20367 -4.20184 -4.20858 -4.22119 -4.23737 -4.25489 -4.2717 -4.28603 -4.29644 -4.3019 -4.16153 -4.16076 -4.17433 -4.19302 -4.21454 -4.23664 -4.25723 -4.27446 -4.28683 -4.29329 -4.12726 -4.1262 -4.14519 -4.16873 -4.19452 -4.22031 -4.24394 -4.26352 -4.2775 -4.28478 -4.10061 -4.09801 -4.1211 -4.14829 -4.17732 -4.2059 -4.23186 -4.25325 -4.26846 -4.27637 -4.08137 -4.07606 -4.10198 -4.13168 -4.16293 -4.19343 -4.22099 -4.24363 -4.25971 -4.26806 -4.06933 -4.06021 -4.08777 -4.11888 -4.15134 -4.1829 -4.21135 -4.23469 -4.25125 -4.25985 -4.06427 -4.05034 -4.07839 -4.10985 -4.14256 -4.17432 -4.20294 -4.22642 -4.2431 -4.25175 -2.9493 -2.88279 -2.86435 -2.85115 -2.84228 -2.83679 -2.83377 -2.83235 -2.83183 -2.83171 );